powerfactory/powerfactory-converter/src/test/resources/Geodata.dgs
$$General;ID(a:40);Descr(a:40);Val(a:40)
 1;Version;5.0

$$ElmNet;ID(a:40);loc_name(a:40);fold_id(p);frnom(r)
 2;MS;;50

$$ElmTerm;ID(a:40);loc_name(a:40);fold_id(p);iUsage(i);uknom(r);GPSlat(r);GPSlon(r)
 3;Busbar-A;210;0;220;;
 4;Busbar-B;211;0;220;;
 5;Busbar-C;212;0;220;;
 6;Busbar-D;2;0;220;46,95;8,45

$$ElmLne;ID(a:40);loc_name(a:40);for_name(a:50);fold_id(p);typ_id(p);dline(r);fline(r);GPScoords:SIZEROW(i);GPScoords:SIZECOL(i);GPScoords:0:0(r);GPScoords:0:1(r);GPScoords:1:0(r);GPScoords:1:1(r);GPScoords:2:0(r);GPScoords:1:1(r);nlnum(i);inAir(i)
  25;Line_A_B_1;;2;300;1;1;3;2;45.0;9.0;45.1;9.1;45.2;9.2;1;0
  26;Line_B_C_1;;2;300;1;1;3;2;44.0;8.0;44.1;8.1;44.2;8.2;1;0
  27;Line_C_D_1;;2;300;1;1;3;2;43.0;7.0;43.1;7.1;43.2;7.2;1;0

$$ElmSym;ID(a:40);loc_name(a:40);fold_id(p);typ_id(p);ngnum(i);i_mot(i);chr_name(a:20);outserv(i);pgini(r);qgini(r);usetp(r);iv_mode(i);q_min(r);q_max(r);Pmin_uc(r);Pmax_uc(r);iqtype(i)
  50;Gen_A_1;2;400;1;0;;0;25;10;1,02;1;-1,1;1,2;0;250;0

$$ElmLod;ID(a:40);loc_name(a:40);for_name(a:50);fold_id(p);typ_id(p);mode_inp(a:3);slini(r);plini(r);qlini(r);coslini(r);pf_recap(i);scale0(r);i_scale(i);outserv(i)
  80;Load_D_1;;2;500;PQ;55,9017;50;25;0,894427;0;1;0;0

$$StaCubic;ID(a:40);loc_name(a:40);fold_id(p);chr_name(a:20);obj_id(p);obj_bus(i)
 100;Cub-Line_A_B_1-1;3;;25;0
 101;Cub-Line_A_B_1-2;4;;25;1
 102;Cub-Line_B_C_1-1;4;;26;0
 103;Cub-Line_B_C_1-2;5;;26;1
 104;Cub-Line_C_D_1-1;5;;27;0
 105;Cub-Line_C_D_1-2;6;;27;1
 106;Cub-Gen_A_1;3;;50;0
 107;Cub-Load_D_1-2;6;;80;0

$$ElmSite;ID(a:40);loc_name(a:40);for_name(a:50);fold_id(p);sType(a:80);GPSlat(r);GPSlon(r)
  200;Substation_A;;2;;49,95;11,45

$$ElmSubstat;ID(a:40);loc_name(a:40);for_name(a:50);fold_id(p);sShort(a:6);sType(a:80);GPSlat(r);GPSlon(r)
  210;VL_A;;200;;;;
  211;VL_B;;2;;;48,95;10,45

$$ElmTrfstat;ID(a:40);loc_name(a:40);for_name(a:50);fold_id(p);GPSlat(r);GPSlon(r)
  212;VL_C;;2;47,95;9,45

$$TypLne;ID(a:40);loc_name(a:40);for_name(a:50);fold_id(p);uline(r);sline(r);InomAir(r);cohl_(i);rline(r);xline(r);rline0(r);xline0(r);Ithr(r);tmax(r);rtemp(r);systp(i);nlnph(i);nneutral(i);frnom(r);mlei(a:2);bline(r);bline0(r)
  300;Line-type;;5;220;99999;1;0;3,561228;11,7311;999999;999999;0;80;80;0;3;0;60;Cu;82,54568;0

$$TypSym;ID(a:40);loc_name(a:40);fold_id(p);sgn(r);ugn(r);cosn(r);xd(r);xq(r);xdsss(r);rstr(r);xdsat(r);satur(i);Q_min(r);Q_max(r);q_min(r);q_max(r)
  400;Gen-type;220;100;2;1;2;2;1;0;1,2;0;-100;100;-1;1

$$TypLod;ID(a:40);loc_name(a:40);for_name(a:50);fold_id(p);systp(i);phtech(i);aP(r);bP(r);kpu0(r);kpu1(r);kpu(r);aQ(r);bQ(r);kqu0(r);kqu1(r);kqu(r)
  500;Load-type;;2;0;0;1;0;0;1;2;1;0;0;1;2
